/*--------------------------------*- C++ -*----------------------------------*\
| =========                 |                                                 |
| \\      /  F ield         | OpenFOAM: The Open Source CFD Toolbox           |
|  \\    /   O peration     | Version:  v2012                                 |
|   \\  /    A nd           | Website:  www.openfoam.com                      |
|    \\/     M anipulation  |                                                 |
\*---------------------------------------------------------------------------*/
FoamFile
{
    version     2.0;
    format      binary;
    class       polyBoundaryMesh;
    arch        "LSB;label=32;scalar=64";
    location    "1/polyMesh";
    object      boundary;
}
// * * * * * * * * * * * * * * * * * * * * * * * * * * * * * * * * * * * * * //

4
(
    defaultFaces
    {
        type            empty;
        inGroups        1(empty);
        nFaces          0;
        startFace       139303;
    }
    outlet
    {
        type            patch;
        nFaces          1076;
        startFace       139303;
    }
    wall
    {
        type            wall;
        inGroups        1(wall);
        nFaces          15697;
        startFace       140379;
    }
    inlet
    {
        type            patch;
        nFaces          1070;
        startFace       156076;
    }
)

// ************************************************************************* //
